%chk=03.chk
%nproc=32
#p freq bv5lyp/6-31G(d) iop(3/76=1000002000) iop(3/77=0720008000) iop(3/78=0810010000)

G3 HOF calculation for No.03

0 1
 C                  2.31979121    0.00000000    0.00000000
 C                  0.00000000   -0.76343534    0.00000000
 C                  0.00000000    0.76343534    0.00000000
 C                  1.38721120   -1.10338563    0.55326624
 C                  1.38721120    1.10338563   -0.55326624
 H                  2.97351148    0.38895685    0.78618299
 H                  2.97351148   -0.38895685   -0.78618299
 H                 -0.81385035   -1.20256833    0.58542721
 H                 -0.81385035    1.20256833   -0.58542721
 H                 -0.09793098   -1.12934277   -1.02935821
 H                 -0.09793098    1.12934277    1.02935821
 H                  1.35924627   -1.05783590    1.64740716
 H                  1.35924627    1.05783590   -1.64740716
 H                  1.71894187   -2.11049127    0.28385017
 H                  1.71894187    2.11049127   -0.28385017

 1 4 1.0 5 1.0 6 1.0 7 1.0
 2 3 1.0 4 1.0 8 1.0 10 1.0
 3 5 1.0 9 1.0 11 1.0
 4 12 1.0 14 1.0
 5 13 1.0 15 1.0
 6
 7
 8
 9
 10
 11
 12
 13
 14
 15

