%chk=05.chk
%nproc=32
#p freq bv5lyp/6-31G(d) iop(3/76=1000002000) iop(3/77=0720008000) iop(3/78=0810010000)

G3 HOF calculation for No.05

 0,1
  C                                                 0.000000000000      0.000000000000      0.000000000000
  C                                                 0.000000000000      0.000000000000      1.528301000000
  C                                                 1.440895997809      0.000000000000     -0.509433675859
  C                                                -0.720447998905     -1.247852538314     -0.509433675859
  C                                                -0.720447998905      1.247852538314     -0.509433675859
  H                                                -1.022448635657      0.000000000000      1.919581506240
  H                                                 0.511224317829     -0.885466492544      1.919581506240
  H                                                 0.511224317829      0.885466492544      1.919581506240
  H                                                 1.468982578019      0.000000000000     -1.603834329702
  H                                                 1.980206905072      0.885466492544     -0.157873605587
  H                                                 1.980206905072     -0.885466492544     -0.157873605587
  H                                                -0.734491289010     -1.272176230282     -1.603834329702
  H                                                -0.223266975793     -2.157642730814     -0.157873605587
  H                                                -1.756939929279     -1.272176238270     -0.157873605587
  H                                                -0.734491289010      1.272176230282     -1.603834329702
  H                                                -1.756939929279      1.272176238270     -0.157873605587
  H                                                -0.223266975793      2.157642730814     -0.157873605587

 1 2 1.000 3 1.000 4 1.000 5 1.000
 2 1 1.000 6 1.000 7 1.000 8 1.000
 3 1 1.000 9 1.000 10 1.000 11 1.000
 4 1 1.000 12 1.000 13 1.000 14 1.000
 5 1 1.000 15 1.000 16 1.000 17 1.000
 6 2 1.000
 7 2 1.000
 8 2 1.000
 9 3 1.000
 10 3 1.000
 11 3 1.000
 12 4 1.000
 13 4 1.000
 14 4 1.000
 15 5 1.000
 16 5 1.000
 17 5 1.000
 
