%chk=06.chk
%nproc=32
#p freq bv5lyp/6-31G(d) iop(3/76=1000002000) iop(3/77=0720008000) iop(3/78=0810010000)

G3 HOF calculation for No.06

 0,1
  H                                                 1.258141437900      0.162774870100     -2.048796367100
  C                                                 0.724892813300     -0.239716969600     -1.181329481100
  C                                                 0.713317400000      0.159659157800      1.253341813600
  C                                                -1.411086205000     -0.148552749700      0.100697176000
  C                                                -0.713317400000     -0.159659157800      1.253341813600
  C                                                -0.724892813300      0.239716969600     -1.181329481100
  C                                                 1.411086205000      0.148552749700      0.100697176000
  H                                                 1.201310210400      0.396220287200      2.195830103500
  H                                                -2.480077625600     -0.348497514300      0.095649623500
  H                                                -1.201310210400     -0.396220287200      2.195830103500
  H                                                -0.744997717800      1.336533496600     -1.278940410800
  H                                                 2.480077625600      0.348497514300      0.095649623500
  H                                                 0.744997717800     -1.336533496600     -1.278940410800
  H                                                -1.258141437900     -0.162774870100     -2.048796367100

 1 2 1.000
 2 1 1.000 6 1.000 7 1.000 13 1.000
 3 5 1.000 7 2.000 8 1.000
 4 5 2.000 6 1.000 9 1.000
 5 3 1.000 4 2.000 10 1.000
 6 2 1.000 4 1.000 11 1.000 14 1.000
 7 2 1.000 3 2.000 12 1.000
 8 3 1.000
 9 4 1.000
 10 5 1.000
 11 6 1.000
 12 7 1.000
 13 2 1.000
 14 6 1.000
 
