%chk=07.chk
%nproc=32
#p freq bv5lyp/6-31G(d) iop(3/76=1000002000) iop(3/77=0720008000) iop(3/78=0810010000)

G3 HOF calculation for No.07

 0,1
  H                                                 0.000000000000      0.871293467000     -2.172430416000
  C                                                 0.000000000000      0.000000000000     -1.500331323900
  C                                                 1.248521698500      0.000000000000      0.669330107400
  C                                                -1.248521698500      0.000000000000      0.669330107400
  C                                                 0.000000000000      0.000000000000      1.500331323900
  C                                                -1.248521698500      0.000000000000     -0.669330107400
  C                                                 1.248521698500      0.000000000000     -0.669330107400
  H                                                 2.197417240600      0.000000000000      1.203070233200
  H                                                 2.197417240600      0.000000000000     -1.203070233200
  H                                                 0.000000000000      0.871293467000      2.172430416000
  H                                                -2.197417240600      0.000000000000     -1.203070233200
  H                                                -2.197417240600      0.000000000000      1.203070233200
  H                                                 0.000000000000     -0.871293467000     -2.172430416000
  H                                                 0.000000000000     -0.871293467000      2.172430416000

 1 2 1.000
 2 1 1.000 6 1.000 7 1.000 13 1.000
 3 5 1.000 7 2.000 8 1.000
 4 5 1.000 6 2.000 12 1.000
 5 3 1.000 4 1.000 10 1.000 14 1.000
 6 2 1.000 4 2.000 11 1.000
 7 2 1.000 3 2.000 9 1.000
 8 3 1.000
 9 7 1.000
 10 5 1.000
 11 6 1.000
 12 4 1.000
 13 2 1.000
 14 5 1.000
 
