%chk=14.chk
%nproc=32
#p freq bv5lyp/6-31G(d) iop(3/76=1000002000) iop(3/77=0720008000) iop(3/78=0810010000)

G3 HOF calculation for No.14

0 1
 C                  0.76278409    0.00000000    0.00000000
 C                 -0.76278409   -0.00000000    0.00000000
 C                  1.36480832    1.40152267    0.00000000
 C                 -1.36480832   -1.40152267    0.00000000
 C                  2.89010585    1.40327806    0.00000000
 C                 -2.89010585   -1.40327806    0.00000000
 C                  3.47956811    2.80950253    0.00000000
 C                 -3.47956811   -2.80950253    0.00000000
 H                  1.12523060   -0.55033092    0.87850386
 H                  1.12523060   -0.55033092   -0.87850386
 H                 -1.12523060    0.55033092    0.87850386
 H                 -1.12523060    0.55033092   -0.87850386
 H                  1.00250997    1.95220234    0.87844450
 H                  1.00250997    1.95220234   -0.87844450
 H                 -1.00250997   -1.95220234    0.87844450
 H                 -1.00250997   -1.95220234   -0.87844450
 H                  3.25041071    0.85267252   -0.87765985
 H                  3.25041071    0.85267252    0.87765985
 H                 -3.25041071   -0.85267252   -0.87765985
 H                 -3.25041071   -0.85267252    0.87765985
 H                  3.15564289    3.36748356    0.88364594
 H                  3.15564289    3.36748356   -0.88364594
 H                 -3.15564289   -3.36748356    0.88364594
 H                 -3.15564289   -3.36748356   -0.88364594
 H                  4.57301586    2.78638901    0.00000000
 H                 -4.57301586   -2.78638901    0.00000000

 1 2 1.0 3 1.0 9 1.0 10 1.0
 2 4 1.0 11 1.0 12 1.0
 3 5 1.0 13 1.0 14 1.0
 4 6 1.0 15 1.0 16 1.0
 5 7 1.0 17 1.0 18 1.0
 6 8 1.0 19 1.0 20 1.0
 7 21 1.0 22 1.0 25 1.0
 8 23 1.0 24 1.0 26 1.0
 9
 10
 11
 12
 13
 14
 15
 16
 17
 18
 19
 20
 21
 22
 23
 24
 25
 26

