%chk=15.chk
%nproc=32
#p freq bv5lyp/6-31G(d) iop(3/76=1000002000) iop(3/77=0720008000) iop(3/78=0810010000)

G3 HOF calculation for No.15

 0,1
  C                                                 0.000000000000      0.000000000000      0.715467867700
  C                                                 0.000000000000      0.000000000000     -0.715467867700
  C                                                 0.000000000000      1.240119206800      1.401951026400
  C                                                 0.000000000000     -1.240119206800      1.401951026400
  C                                                 0.000000000000      1.240119206800     -1.401951026400
  C                                                 0.000000000000     -1.240119206800     -1.401951026400
  C                                                 0.000000000000     -2.429700563500      0.706502461900
  C                                                 0.000000000000      2.429700563500      0.706502461900
  H                                                 0.000000000000      1.238847106100      2.490787988300
  H                                                 0.000000000000     -1.238847106100      2.490787988300
  C                                                 0.000000000000     -2.429700563500     -0.706502461900
  C                                                 0.000000000000      2.429700563500     -0.706502461900
  H                                                 0.000000000000      1.238847106100     -2.490787988300
  H                                                 0.000000000000     -1.238847106100     -2.490787988300
  H                                                 0.000000000000     -3.374331566500      1.244956071900
  H                                                 0.000000000000      3.374331566500      1.244956071900
  H                                                 0.000000000000     -3.374331566500     -1.244956071900
  H                                                 0.000000000000      3.374331566500     -1.244956071900

 1 2 1.000 3 1.500 4 1.500
 2 1 1.000 5 1.500 6 1.500
 3 1 1.500 8 1.500 9 1.000
 4 1 1.500 7 1.500 10 1.000
 5 2 1.500 12 1.500 13 1.000
 6 2 1.500 11 1.500 14 1.000
 7 4 1.500 11 1.500 15 1.000
 8 3 1.500 12 1.500 16 1.000
 9 3 1.000
 10 4 1.000
 11 6 1.500 7 1.500 17 1.000
 12 5 1.500 8 1.500 18 1.000
 13 5 1.000
 14 6 1.000
 15 7 1.000
 16 8 1.000
 17 11 1.000
 18 12 1.000
 
