%chk=16.chk
%nproc=32
#p freq bv5lyp/6-31G(d) iop(3/76=1000002000) iop(3/77=0720008000) iop(3/78=0810010000)

G3 HOF calculation for No.16

 0,1
  C                                                 0.000000000000      0.000000000000      0.000000000000
  C                                                 0.000000000000      0.000000000000      1.402863870000
  C                                                 1.317791847504      0.000000000000     -0.481076207047
  C                                                 1.330718402730      0.000000000000      1.846769770791
  C                                                 2.191193615518      0.000000000000      0.616594372661
  C                                                 1.749151825596      0.000000000000      3.172015610291
  C                                                 3.579593480091      0.000000000000      0.555667100293
  C                                                 3.051500889418      0.000000000000      3.678010949273
  C                                                 4.501067973976      0.000000000000      1.605981386193
  C                                                 4.263322874269      0.000000000000      2.982720117719
  H                                                -0.890273497788      0.000000000000     -0.622795616378
  H                                                -0.874047384298      0.000000000000      2.045861321509
  H                                                 1.622063615030      0.000000000000     -1.522636067285
  H                                                 0.949618839649      0.000000000000      3.915502737894
  H                                                 4.004510957540      0.000000000000     -0.450030844614
  H                                                 3.133337321155      0.000000000000      4.763633891674
  H                                                 5.548993916172      0.000000000000      1.310737140531
  H                                                 5.156263955127      0.000000000000      3.607454460842

 1 2 1.500 3 1.500 11 1.000
 2 1 1.500 4 1.500 12 1.000
 3 1 1.500 5 1.500 13 1.000
 4 2 1.500 5 1.000 6 1.500
 5 3 1.500 4 1.000 7 1.500
 6 4 1.500 8 1.500 14 1.000
 7 5 1.500 9 1.500 15 1.000
 8 6 1.500 10 1.500 16 1.000
 9 7 1.500 10 1.500 17 1.000
 10 8 1.500 9 1.500 18 1.000
 11 1 1.000
 12 2 1.000
 13 3 1.000
 14 6 1.000
 15 7 1.000
 16 8 1.000
 17 9 1.000
 18 10 1.000
 
