%chk=19.chk
%nproc=32
#p freq bv5lyp/6-31G(d) iop(3/76=1000002000) iop(3/77=0720008000) iop(3/78=0810010000)

G3 HOF calculation for No.19

 0,1
  C                                                -0.006731000000      0.934766000000      0.000000000000
  C                                                 0.006654000000      0.221924000000      1.205747000000
  C                                                 0.006654000000      0.221924000000     -1.205747000000
  C                                                 0.006654000000     -1.170616000000      1.202473000000
  C                                                 0.006654000000     -1.170616000000     -1.202473000000
  C                                                 0.010503000000     -1.877232000000      0.000000000000
  N                                                 0.064161000000      2.337919000000      0.000000000000
  H                                                -0.340044000000      2.758633000000     -0.830402000000
  H                                                -0.340044000000      2.758633000000      0.830402000000
  H                                                 0.010543000000     -1.705214000000      2.149344000000
  H                                                 0.010543000000     -1.705214000000     -2.149344000000
  H                                                 0.009977000000     -2.963545000000      0.000000000000
  H                                                 0.008788000000      0.765189000000      2.149139000000
  H                                                 0.008788000000      0.765189000000     -2.149139000000

 1 2 1.500 3 1.500 7 1.000
 2 1 1.500 4 1.500 13 1.000
 3 1 1.500 5 1.500 14 1.000
 4 2 1.500 6 1.500 10 1.000
 5 3 1.500 6 1.500 11 1.000
 6 4 1.500 5 1.500 12 1.000
 7 1 1.000 8 1.000 9 1.000
 8 7 1.000
 9 7 1.000
 10 4 1.000
 11 5 1.000
 12 6 1.000
 13 2 1.000
 14 3 1.000
 
