%chk=20.chk
%nproc=32
#p freq bv5lyp/6-31G(d) iop(3/76=1000002000) iop(3/77=0720008000) iop(3/78=0810010000)

G3 HOF calculation for No.20

 0,1
  C                                                 0.000000000000      0.937146000000      0.000000000000
  C                                                -1.205853000000      0.234638000000      0.000000000000
  C                                                -1.192040000000     -1.160372000000      0.000000000000
  C                                                 0.016134000000     -1.854562000000      0.000000000000
  C                                                 1.217058000000     -1.141800000000      0.000000000000
  C                                                 1.215222000000      0.249837000000      0.000000000000
  O                                                 0.062735000000      2.309303000000      0.000000000000
  H                                                -0.845703000000      2.658414000000      0.000000000000
  H                                                -2.152618000000      0.773041000000      0.000000000000
  H                                                -2.134427000000     -1.702203000000      0.000000000000
  H                                                 0.023244000000     -2.940753000000      0.000000000000
  H                                                 2.165461000000     -1.673046000000      0.000000000000
  H                                                 2.139030000000      0.820810000000      0.000000000000

 1 2 1.500 6 1.500 7 1.500
 2 1 1.500 3 1.500 9 1.000
 3 2 1.500 4 1.500 10 1.000
 4 3 1.500 5 1.500 11 1.000
 5 4 1.500 6 1.500 12 1.000
 6 1 1.500 5 1.500 13 1.000
 7 1 1.500 8 1.000
 8 7 1.000
 9 2 1.000
 10 3 1.000
 11 4 1.000
 12 5 1.000
 13 6 1.000
 
