%chk=28.chk
%nproc=32
#p freq bv5lyp/6-31G(d) iop(3/76=1000002000) iop(3/77=0720008000) iop(3/78=0810010000)

G3 HOF calculation for No.28

 0,1
  C                                                 0.173566535700      0.000000000000      1.869646010900
  N                                                -0.200687920700      0.000000000000      2.987998641400
  C                                                 0.607379622200      0.000000000000      0.472650227500
  H                                                 1.228555657900     -0.881448618100      0.288084363100
  H                                                 1.228555657900      0.881448618100      0.288084363100
  C                                                -0.607379622200      0.000000000000     -0.472650227500
  H                                                -1.228555657900     -0.881448618100     -0.288084363100
  C                                                -0.173566535700      0.000000000000     -1.869646010900
  H                                                -1.228555657900      0.881448618100     -0.288084363100
  N                                                 0.200687920700      0.000000000000     -2.987998641400

 1 2 2.000 3 1.000
 2 1 2.000
 3 1 1.000 4 1.000 5 1.000 6 1.000
 4 3 1.000
 5 3 1.000
 6 3 1.000 7 1.000 8 1.000 9 1.000
 7 6 1.000
 8 6 1.000 10 2.000
 9 6 1.000
 10 8 2.000
 
