%chk=30.chk
%nproc=32
#p freq bv5lyp/6-31G(d) iop(3/76=1000002000) iop(3/77=0720008000) iop(3/78=0810010000)

G3 HOF calculation for No.30

 0,1
  H                                                 1.609661195400     -0.881940906800      1.131604145900
  C                                                 0.994771027900      0.000000000000      1.336995808100
  H                                                 0.673456249700      0.000000000000      2.379492132100
  C                                                -0.217556625800      0.000000000000      0.444486330100
  H                                                 1.609661195400      0.881940906800      1.131604145900
  O                                                -1.368507260200      0.000000000000      0.872934372700
  C                                                 0.048204500800      0.000000000000     -0.989520220100
  C                                                 0.273869125300      0.000000000000     -2.189509536500
  H                                                 0.459551271700      0.000000000000     -3.240889695400

 1 2 1.000
 2 1 1.000 3 1.000 4 1.000 5 1.000
 3 2 1.000
 4 2 1.000 6 2.000 7 1.000
 5 2 1.000
 6 4 2.000
 7 4 1.000 8 3.000
 8 7 3.000 9 1.000
 9 8 1.000
 
