%chk=32.chk
%nproc=32
#p freq bv5lyp/6-31G(d) iop(3/76=1000002000) iop(3/77=0720008000) iop(3/78=0810010000)

G3 HOF calculation for No.32

 0,1
  O                                                 0.000000000000      0.000000000000      0.619744833500
  C                                                -0.003865313400      1.208386413700     -0.087477395500
  O                                                 0.453488028500      1.334289208800     -1.196815228600
  C                                                -0.598206598800      2.280907954200      0.774807855400
  C                                                 0.003865313400     -1.208386413700     -0.087477395500
  O                                                -0.453488028500     -1.334289208800     -1.196815228600
  C                                                 0.598206598800     -2.280907954200      0.774807855400
  H                                                 0.509845733100     -3.240763228200      0.268220594000
  H                                                 0.084862217800     -2.310992602500      1.738148583400
  H                                                 1.649532634300     -2.052138591200      0.965190558400
  H                                                -0.509845733100      3.240763228200      0.268220594000
  H                                                -0.084862217800      2.310992602500      1.738148583400
  H                                                -1.649532634300      2.052138591200      0.965190558400

 1 2 1.000 5 1.000
 2 1 1.000 3 2.000 4 1.000
 3 2 2.000
 4 2 1.000 11 1.000 12 1.000 13 1.000
 5 1 1.000 6 2.000 7 1.000
 6 5 2.000
 7 5 1.000 8 1.000 9 1.000 10 1.000
 8 7 1.000
 9 7 1.000
 10 7 1.000
 11 4 1.000
 12 4 1.000
 13 4 1.000
 
