%chk=33.chk
%nproc=32
#p freq bv5lyp/6-31G(d) iop(3/76=1000002000) iop(3/77=0720008000) iop(3/78=0810010000)

G3 HOF calculation for No.33

 0,1
  S                                                 0.620148567000      0.914064933100      0.572712555600
  C                                                -0.722982573500      0.914054272200     -0.667680648400
  C                                                 0.726795571100     -0.908434123200      0.671201984600
  C                                                -1.025333861300     -0.526957712700     -0.946904673000
  C                                                -0.304485283700     -1.433122681700     -0.281194788300
  H                                                -1.598880941600      1.438446619700     -0.272351698800
  H                                                 1.732925968500     -1.240871610900      0.396143438400
  H                                                -0.398454962600      1.438446619700     -1.572205252500
  H                                                 0.532499989500     -1.240871610900      1.695996992100
  H                                                -1.800416980600     -0.787873736900     -1.662700625300
  H                                                -0.434013260200     -2.505553737200     -0.400814992800

 1 2 1.000 3 1.000
 2 1 1.000 4 1.000 6 1.000 8 1.000
 3 1 1.000 5 1.000 7 1.000 9 1.000
 4 2 1.000 5 2.000 10 1.000
 5 3 1.000 4 2.000 11 1.000
 6 2 1.000
 7 3 1.000
 8 2 1.000
 9 3 1.000
 10 4 1.000
 11 5 1.000
 
