%chk=34.chk
%nproc=32
#p freq bv5lyp/6-31G(d) iop(3/76=1000002000) iop(3/77=0720008000) iop(3/78=0810010000)

G3 HOF calculation for No.34

 0,1
  H                                                -0.263475424000      2.166816256900      0.551571505200
  C                                                 0.144784769700      1.268435276100      1.019854483700
  H                                                 1.233934666000      1.298732657800      0.933905843700
  C                                                -0.406065477000      0.000000000000      0.362945076800
  H                                                -0.119710103200      1.277575854100      2.080661175100
  C                                                -0.102691218600      0.000000000000     -1.073173461300
  H                                                -1.498813707100      0.000000000000      0.458071174300
  C                                                 0.144784769700     -1.268435276100      1.019854483700
  H                                                 1.233934666000     -1.298732657800      0.933905843700
  H                                                -0.263475424000     -2.166816256900      0.551571505200
  H                                                -0.119710103200     -1.277575854100      2.080661175100
  N                                                 0.158919766700      0.000000000000     -2.223890245800

 1 2 1.000
 2 1 1.000 3 1.000 4 1.000 5 1.000
 3 2 1.000
 4 2 1.000 6 1.000 7 1.000 8 1.000
 5 2 1.000
 6 4 1.000 12 2.000
 7 4 1.000
 8 4 1.000 9 1.000 10 1.000 11 1.000
 9 8 1.000
 10 8 1.000
 11 8 1.000
 12 6 2.000
 
