%chk=35.chk
%nproc=32
#p freq bv5lyp/6-31G(d) iop(3/76=1000002000) iop(3/77=0720008000) iop(3/78=0810010000)

G3 HOF calculation for No.35

 0,1
  H                                                -0.693647988200     -0.879716345100      2.061390038200
  C                                                -0.050224201400      0.000000000000      2.002037390400
  H                                                -0.693647988200      0.879716345100      2.061390038200
  C                                                 0.740311085700      0.000000000000      0.704157698000
  H                                                 0.621819966100      0.000000000000      2.863878124300
  C                                                -0.142354025900      0.000000000000     -0.528444783900
  H                                                 1.404314008300     -0.872686631100      0.643590468300
  H                                                -0.178163723200      0.000000000000     -2.667232391600
  H                                                 1.204645816900     -0.881342238000     -1.958091359800
  H                                                 1.204645816900      0.881342238000     -1.958091359800
  H                                                 1.404314008300      0.872686631100      0.643590468300
  O                                                -1.366506454900      0.000000000000     -0.444710209900
  C                                                 0.561895762100      0.000000000000     -1.866540695700

 1 2 1.000
 2 1 1.000 3 1.000 4 1.000 5 1.000
 3 2 1.000
 4 2 1.000 6 1.000 7 1.000 11 1.000
 5 2 1.000
 6 4 1.000 12 2.000 13 1.000
 7 4 1.000
 8 13 1.000
 9 13 1.000
 10 13 1.000
 11 4 1.000
 12 6 2.000
 13 6 1.000 8 1.000 9 1.000 10 1.000
 
