%chk=37.chk
%nproc=32
#p freq bv5lyp/6-31G(d) iop(3/76=1000002000) iop(3/77=0720008000) iop(3/78=0810010000)

G3 HOF calculation for No.37

 0,1
  H                                                -1.259044895800     -2.023459220400      0.237659082300
  H                                                -1.259044895800      2.023459220400      0.237659082300
  C                                                 0.733062042300     -1.165755400300      0.190894685700
  C                                                 0.733062042300      1.165755400300      0.190894685700
  H                                                 1.259044895800      2.023459220400     -0.237659082300
  C                                                -0.733062042300      1.165755400300     -0.190894685700
  C                                                -0.733062042300     -1.165755400300     -0.190894685700
  H                                                 0.826808825200     -1.197212917300      1.286869787500
  H                                                 0.826808825200      1.197212917300      1.286869787500
  O                                                 1.374367987400      0.000000000000     -0.322888286700
  H                                                -0.826808825200      1.197212917300     -1.286869787500
  H                                                -0.826808825200     -1.197212917300     -1.286869787500
  O                                                -1.374367987400      0.000000000000      0.322888286700
  H                                                 1.259044895800     -2.023459220400     -0.237659082300

 1 7 1.000
 2 6 1.000
 3 7 1.000 8 1.000 10 1.000 14 1.000
 4 5 1.000 6 1.000 9 1.000 10 1.000
 5 4 1.000
 6 2 1.000 4 1.000 11 1.000 13 1.000
 7 1 1.000 3 1.000 12 1.000 13 1.000
 8 3 1.000
 9 4 1.000
 10 3 1.000 4 1.000
 11 6 1.000
 12 7 1.000
 13 6 1.000 7 1.000
 14 3 1.000
 
