%chk=39.chk
%nproc=32
#p freq bv5lyp/6-31G(d) iop(3/76=1000002000) iop(3/77=0720008000) iop(3/78=0810010000)

G3 HOF calculation for No.39

 0,1
  Cl                                                0.000000000000      0.000000000000      1.467106441500
  C                                                 0.000000000000      0.000000000000     -0.346792184300
  C                                                 0.000000000000      1.449427913100     -0.805989562300
  C                                                 1.255241393700     -0.724713956500     -0.805989562300
  C                                                -1.255241393700     -0.724713956500     -0.805989562300
  H                                                 0.000000000000      1.483267262900     -1.900037356600
  H                                                 1.284547130300     -0.741633631500     -1.900037356600
  H                                                -1.284547130300     -0.741633631500     -1.900037356600
  H                                                 0.886477193500      1.973178181100     -0.442022034600
  H                                                -0.886477193500      1.973178181100     -0.442022034600
  H                                                 1.265583834300     -1.754300860000     -0.442022034600
  H                                                 2.152061027800     -0.218877321100     -0.442022034600
  H                                                -2.152061027800     -0.218877321100     -0.442022034600
  H                                                -1.265583834300     -1.754300860000     -0.442022034600

 1 2 1.000
 2 1 1.000 3 1.000 4 1.000 5 1.000
 3 2 1.000 6 1.000 9 1.000 10 1.000
 4 2 1.000 7 1.000 11 1.000 12 1.000
 5 2 1.000 8 1.000 13 1.000 14 1.000
 6 3 1.000
 7 4 1.000
 8 5 1.000
 9 3 1.000
 10 3 1.000
 11 4 1.000
 12 4 1.000
 13 5 1.000
 14 5 1.000
 
