%chk=40.chk
%nproc=32
#p freq bv5lyp/6-31G(d) iop(3/76=1000002000) iop(3/77=0720008000) iop(3/78=0810010000)

G3 HOF calculation for No.40

 0,1
  H                                                -1.125286706800      0.877232353300      2.961558535200
  C                                                -0.485221616300      0.000000000000      2.969687538400
  H                                                 0.065973369900      0.000000000000      3.904452197900
  C                                                 0.464429354300      0.000000000000      1.772385605900
  H                                                -1.125286706800     -0.877232353300      2.961558535200
  H                                                 1.113484185400      0.871105592500      1.827144693800
  C                                                -0.280806280800      0.000000000000      0.434598461700
  H                                                 1.113484185400     -0.871105592500      1.827144693800
  H                                                -0.923666129000      0.872287749200      0.368221579600
  H                                                -0.923666129000     -0.872287749200      0.368221579600
  C                                                 0.684381471300      0.000000000000     -0.740131412100
  H                                                 1.312403758900      0.878193914400     -0.740470447900
  Cl                                               -0.183325950500      0.000000000000     -2.315094240100
  H                                                 1.312403758900     -0.878193914400     -0.740470447900

 1 2 1.000
 2 1 1.000 3 1.000 4 1.000 5 1.000
 3 2 1.000
 4 2 1.000 6 1.000 7 1.000 8 1.000
 5 2 1.000
 6 4 1.000
 7 4 1.000 9 1.000 10 1.000 11 1.000
 8 4 1.000
 9 7 1.000
 10 7 1.000
 11 7 1.000 12 1.000 13 1.000 14 1.000
 12 11 1.000
 13 11 1.000
 14 11 1.000
 
