%chk=43.chk
%nproc=32
#p freq bv5lyp/6-31G(d) iop(3/76=1000002000) iop(3/77=0720008000) iop(3/78=0810010000)

G3 HOF calculation for No.43

 0,1
  H                                                 3.300677718000      0.000000000000     -0.150905238100
  C                                                 2.363802006000      0.000000000000      0.412948653000
  H                                                 2.337932677400     -0.885810759300      1.050553228100
  C                                                 1.177081205500      0.000000000000     -0.524555379000
  H                                                 2.337932677400      0.885810759300      1.050553228100
  H                                                 1.193526983500     -0.886841178200     -1.177389617500
  H                                                 1.193526983500      0.886841178200     -1.177389617500
  O                                                 0.000000000000      0.000000000000      0.268554593200
  C                                                -1.177081205500      0.000000000000     -0.524555379000
  C                                                -2.363802006000      0.000000000000      0.412948653000
  H                                                -1.193526983500     -0.886841178200     -1.177389617500
  H                                                -1.193526983500      0.886841178200     -1.177389617500
  H                                                -3.300677718000      0.000000000000     -0.150905238100
  H                                                -2.337932677400      0.885810759300      1.050553228100
  H                                                -2.337932677400     -0.885810759300      1.050553228100

 1 2 1.000
 2 1 1.000 3 1.000 4 1.000 5 1.000
 3 2 1.000
 4 2 1.000 6 1.000 7 1.000 8 1.000
 5 2 1.000
 6 4 1.000
 7 4 1.000
 8 4 1.000 9 1.000
 9 8 1.000 10 1.000 11 1.000 12 1.000
 10 9 1.000 13 1.000 14 1.000 15 1.000
 11 9 1.000
 12 9 1.000
 13 10 1.000
 14 10 1.000
 15 10 1.000
 
