%chk=48.chk
%nproc=32
#p freq bv5lyp/6-31G(d) iop(3/76=1000002000) iop(3/77=0720008000) iop(3/78=0810010000)

G3 HOF calculation for No.48

 0,1
  C                                                 0.000000000000      0.000000000000      0.000000000000
  Si                                                0.000000000000      0.000000000000      1.885183000000
  C                                                 1.777367573428      0.000000000000      2.513577344672
  C                                                -0.888683786714      1.539245470451      2.513577344672
  C                                                -0.888683786714     -1.539245470451      2.513577344672
  H                                                -1.019295071343      0.000000000000     -0.397561527848
  H                                                 0.509647535672     -0.882735425735     -0.397561527848
  H                                                 0.509647535672      0.882735425735     -0.397561527848
  H                                                 1.812427145711      0.000000000000      3.607098463480
  H                                                 2.322074690579      0.882735425735      2.165597552778
  H                                                 2.322074690579     -0.882735425735      2.165597552778
  H                                                -0.906213572856      1.569607950695      3.607098463480
  H                                                -1.925508648797      1.569607958658      2.165597552778
  H                                                -0.396566041782      2.452343384394      2.165597552778
  H                                                -0.906213572856     -1.569607950695      3.607098463480
  H                                                -0.396566041782     -2.452343384394      2.165597552778
  H                                                -1.925508648797     -1.569607958658      2.165597552778

 1 2 1.000 6 1.000 7 1.000 8 1.000
 2 1 1.000 3 1.000 4 1.000 5 1.000
 3 2 1.000 9 1.000 10 1.000 11 1.000
 4 2 1.000 12 1.000 13 1.000 14 1.000
 5 2 1.000 15 1.000 16 1.000 17 1.000
 6 1 1.000
 7 1 1.000
 8 1 1.000
 9 3 1.000
 10 3 1.000
 11 3 1.000
 12 4 1.000
 13 4 1.000
 14 4 1.000
 15 5 1.000
 16 5 1.000
 17 5 1.000
 
