%chk=49.chk
%nproc=32
#p freq bv5lyp/6-31G(d) iop(3/76=1000002000) iop(3/77=0720008000) iop(3/78=0810010000)

G3 HOF calculation for No.49

 0,1
  H                                                -0.351270062100      0.000000000000     -2.711871087200
  S                                                -1.142880863600      0.000000000000     -0.393904663200
  C                                                 0.105078718900      0.000000000000      0.800719320000
  H                                                 2.267097456100      0.000000000000      0.770052935000
  H                                                 2.149222876700      0.000000000000     -1.868939714100
  C                                                -0.009597008400      0.000000000000     -1.684925706300
  C                                                 1.281454679900      0.000000000000     -1.217755490200
  C                                                 1.343152633700      0.000000000000      0.199411574500
  C                                                -0.209443223400      0.000000000000      2.263434145400
  H                                                 0.723343711500      0.000000000000      2.833079088700
  H                                                -0.783087484500     -0.884215895700      2.557425164500
  H                                                -0.783087484500      0.884215895700      2.557425164500

 1 6 1.000
 2 3 1.000 6 1.000
 3 2 1.000 8 1.500 9 1.000
 4 8 1.000
 5 7 1.000
 6 1 1.000 2 1.000 7 1.500
 7 5 1.000 6 1.500 8 1.500
 8 3 1.500 4 1.000 7 1.500
 9 3 1.000 10 1.000 11 1.000 12 1.000
 10 9 1.000
 11 9 1.000
 12 9 1.000
 
