%chk=50.chk
%nproc=32
#p freq bv5lyp/6-31G(d) iop(3/76=1000002000) iop(3/77=0720008000) iop(3/78=0810010000)

G3 HOF calculation for No.50

 0,1
  H                                                 0.000000000000      1.070507165000     -2.414197129400
  N                                                 0.000000000000     -0.045656235900     -0.622875485100
  C                                                 1.119148078400     -0.016027189200      0.170876712900
  H                                                 0.886626416700     -0.473414417000     -2.456052045600
  H                                                -0.886626416700     -0.473414417000     -2.456052045600
  C                                                -1.119148078400     -0.016027189200      0.170876712900
  C                                                 0.000000000000      0.032278505100     -2.069808918500
  C                                                 0.707568975400      0.017006990800      1.490238507900
  H                                                 2.107726579200     -0.027254675100     -0.268518754400
  C                                                -0.707568975400      0.017006990800      1.490238507900
  H                                                -2.107726579200     -0.027254675100     -0.268518754400
  H                                                 1.358589362500      0.022498010600      2.354468993300
  H                                                -1.358589362500      0.022498010600      2.354468993300

 1 7 1.000
 2 3 1.000 6 1.000 7 1.000
 3 2 1.000 8 1.500 9 1.000
 4 7 1.000
 5 7 1.000
 6 2 1.000 10 1.500 11 1.000
 7 1 1.000 2 1.000 4 1.000 5 1.000
 8 3 1.500 10 1.500 12 1.000
 9 3 1.000
 10 6 1.500 8 1.500 13 1.000
 11 6 1.000
 12 8 1.000
 13 10 1.000
 
