%chk=53.chk
%nproc=32
#p freq bv5lyp/6-31G(d) iop(3/76=1000002000) iop(3/77=0720008000) iop(3/78=0810010000)

G3 HOF calculation for No.53

 0,1
  H                                                -0.094428288500      1.804056883200     -2.273768232300
  C                                                 0.701914630800      1.931716122600     -1.537117274300
  H                                                 1.652918608600      2.099000443100     -2.040423073500
  C                                                 0.803115311800      0.699931386700     -0.680306403300
  H                                                 0.445884065500      2.794645680600     -0.918749826400
  O                                                 1.787131741100     -0.013025239900     -0.578583633900
  O                                                -0.364944169600      0.486528851600     -0.025155382000
  C                                                -0.405017674800     -0.681567195800      0.843166068600
  C                                                -0.686021105300     -1.914646854800      0.007572832400
  C                                                -1.483467233800     -0.386018380800      1.862755816300
  H                                                 0.573215429400     -0.770900546600      1.323620747100
  H                                                 0.118298912500     -2.077958357100     -0.711437494500
  H                                                -1.630852833900     -1.792810432800     -0.528961213000
  H                                                -0.760917871800     -2.797365105000      0.649383676900
  H                                                -1.566513779600     -1.214134899400      2.571972532400
  H                                                -2.447838606600     -0.255076271900      1.365322691500
  H                                                -1.250409780200      0.526023244900      2.416526079800

 1 2 1.000
 2 1 1.000 3 1.000 4 1.000 5 1.000
 3 2 1.000
 4 2 1.000 6 2.000 7 1.500
 5 2 1.000
 6 4 2.000
 7 4 1.500 8 1.000
 8 7 1.000 9 1.000 10 1.000 11 1.000
 9 8 1.000 12 1.000 13 1.000 14 1.000
 10 8 1.000 15 1.000 16 1.000 17 1.000
 11 8 1.000
 12 9 1.000
 13 9 1.000
 14 9 1.000
 15 10 1.000
 16 10 1.000
 17 10 1.000
 
