%chk=54.chk
%nproc=32
#p freq bv5lyp/6-31G(d) iop(3/76=1000002000) iop(3/77=0720008000) iop(3/78=0810010000)

G3 HOF calculation for No.54

 0,1
  S                                                 0.000490084900      1.505721753600      0.000000000000
  C                                                 0.068861303600     -1.718210568300      0.000000000000
  C                                                -0.390055714400      0.371894891000      1.359391596200
  C                                                -0.390055714400      0.371894891000     -1.359391596200
  C                                                 0.387035342900     -0.935793796600      1.272638898800
  C                                                 0.387035342900     -0.935793796600     -1.272638898800
  H                                                -1.468509093200      0.173651026400      1.367671867200
  H                                                -0.148077472600      0.908572713000      2.281604796200
  H                                                -1.468509093200      0.173651026400     -1.367671867200
  H                                                -0.148077472600      0.908572713000     -2.281604796200
  H                                                 1.460325259100     -0.717013292600      1.311656095400
  H                                                 0.148588985400     -1.549196175600      2.150691048800
  H                                                 1.460325259100     -0.717013292600     -1.311656095400
  H                                                 0.148588985400     -1.549196175600     -2.150691048800
  H                                                 0.627164836900     -2.661241558700      0.000000000000
  H                                                -0.996584914600     -1.986284763800      0.000000000000

 1 3 1.000 4 1.000
 2 5 1.000 6 1.000 15 1.000 16 1.000
 3 1 1.000 5 1.000 7 1.000 8 1.000
 4 1 1.000 6 1.000 9 1.000 10 1.000
 5 2 1.000 3 1.000 11 1.000 12 1.000
 6 2 1.000 4 1.000 13 1.000 14 1.000
 7 3 1.000
 8 3 1.000
 9 4 1.000
 10 4 1.000
 11 5 1.000
 12 5 1.000
 13 6 1.000
 14 6 1.000
 15 2 1.000
 16 2 1.000
 
