%chk=56.chk
%nproc=32
#p freq bv5lyp/6-31G(d) iop(3/76=1000002000) iop(3/77=0720008000) iop(3/78=0810010000)

G3 HOF calculation for No.56

 0,1
  H                                                -0.535366721300      0.000000000000     -2.497567383300
  H                                                -1.656038903700      0.886140698900     -1.436404614900
  H                                                -1.656038903700     -0.886140698900     -1.436404614900
  H                                                 0.242579878700      2.143753293300     -0.340642777200
  H                                                 1.652517330500      1.264273222400      0.287413958200
  H                                                 1.359291536800      1.322004725900     -1.451420045100
  O                                                -0.803493208900      0.000000000000      0.787556161300
  C                                                 0.009777765200      0.000000000000     -0.400524564900
  C                                                 0.869461423300      1.257952206800     -0.475350106400
  C                                                -1.021709083300      0.000000000000     -1.517969067300
  C                                                 0.869461423300     -1.257952206800     -0.475350106400
  H                                                 1.652517330500     -1.264273222400      0.287413958200
  H                                                 1.359291536800     -1.322004725900     -1.451420045100
  H                                                 0.242579878700     -2.143753293300     -0.340642777200
  C                                                -0.118114362100      0.000000000000      2.028410904200
  H                                                -0.896346720200      0.000000000000      2.793069687100
  H                                                 0.504848214400      0.891508294900      2.165426503800
  H                                                 0.504848214400     -0.891508294900      2.165426503800

 1 10 1.000
 2 10 1.000
 3 10 1.000
 4 9 1.000
 5 9 1.000
 6 9 1.000
 7 8 1.000 15 1.000
 8 7 1.000 9 1.000 10 1.000 11 1.000
 9 4 1.000 5 1.000 6 1.000 8 1.000
 10 1 1.000 2 1.000 3 1.000 8 1.000
 11 8 1.000 12 1.000 13 1.000 14 1.000
 12 11 1.000
 13 11 1.000
 14 11 1.000
 15 7 1.000 16 1.000 17 1.000 18 1.000
 16 15 1.000
 17 15 1.000
 18 15 1.000
 
