%chk=59.chk
%nproc=32
#p freq bv5lyp/6-31G(d) iop(3/76=1000002000) iop(3/77=0720008000) iop(3/78=0810010000)

G3 HOF calculation for No.59

 0,1
  F                                                 0.000000000000      0.000000000000      2.284530582600
  C                                                 0.000000000000      0.000000000000      0.927613511300
  C                                                 0.000000000000      1.216647468300      0.259459385800
  C                                                 0.000000000000     -1.216647468300      0.259459385800
  C                                                 0.000000000000      1.207872011700     -1.135181581700
  C                                                 0.000000000000     -1.207872011700     -1.135181581700
  C                                                 0.000000000000      0.000000000000     -1.834115754100
  H                                                 0.000000000000      2.140804006000      0.828770294900
  H                                                 0.000000000000     -2.140804006000      0.828770294900
  H                                                 0.000000000000      2.150938182000     -1.675120551300
  H                                                 0.000000000000     -2.150938182000     -1.675120551300
  H                                                 0.000000000000      0.000000000000     -2.920394923000

 1 2 1.000
 2 1 1.000 3 1.500 4 1.500
 3 2 1.500 5 1.500 8 1.000
 4 2 1.500 6 1.500 9 1.000
 5 3 1.500 7 1.500 10 1.000
 6 4 1.500 7 1.500 11 1.000
 7 5 1.500 6 1.500 12 1.000
 8 3 1.000
 9 4 1.000
 10 5 1.000
 11 6 1.000
 12 7 1.000
 
