%chk=62.chk
%nproc=32
#p freq bv5lyp/6-31G(d) iop(3/76=1000002000) iop(3/77=0720008000) iop(3/78=0810010000)

G3 HOF calculation for No.62

 0,1
  S                                                 0.000000000000      0.000000000000      0.000000000000
  F                                                 0.000000000000      0.000000000000      1.592466140000
  F                                                 1.592466140000      0.000000000000      0.000000000000
  F                                                 0.000000000000      0.000000000000     -1.592466140000
  F                                                 0.000000000000      1.592466140000      0.000000000000
  F                                                 0.000000000000     -1.592466140000      0.000000000000
  F                                                -1.592466140000      0.000000000000      0.000000000000

 1 2 1.000 3 1.000 4 1.000 5 1.000 6 1.000 7 1.000
 2 1 1.000
 3 1 1.000
 4 1 1.000
 5 1 1.000
 6 1 1.000
 7 1 1.000
 
