%chk=63.chk
%nproc=32
#p freq bv5lyp/6-31G(d) iop(3/76=1000002000) iop(3/77=0720008000) iop(3/78=0810010000)

G3 HOF calculation for No.63

0 1
 P                  0.00000000    0.00000000    1.34405231
 P                  1.26718467    0.00000000   -0.44801744
 P                 -0.63359235    1.09741410   -0.44801744
 P                 -0.63359235   -1.09741410   -0.44801744

 1 2 1.0 3 1.0 4 1.0
 2 3 1.0 4 1.0
 3 4 1.0
 4

