%chk=64.chk
%nproc=32
#p freq bv5lyp/6-31G(d) iop(3/76=1000002000) iop(3/77=0720008000) iop(3/78=0810010000)

G3 HOF calculation for No.64

 0,1
  S                                                 0.000000000000      0.000000000000      0.000000000000
  O                                                 0.000000000000      0.000000000000      1.457994650000
  O                                                 1.262660405482      0.000000000000     -0.728997325000
  O                                                -1.262660405482      0.000000000000     -0.728997325000

 1 2 2.000 3 2.000 4 2.000
 2 1 2.000
 3 1 2.000
 4 1 2.000
 
