%chk=67.chk
%nproc=32
#p freq bv5lyp/6-31G(d) iop(3/76=1000002000) iop(3/77=0720008000) iop(3/78=0810010000)

G3 HOF calculation for No.67

0 1
 P                  0.00000000    0.00000000    0.00000000
 Cl                 0.00000000    0.00000000    2.13884725
 Cl                 2.03781661    0.00000000    0.00000000
 Cl                 0.00000000    0.00000000   -2.13884725
 Cl                -1.01890830   -1.76480095    0.00000000
 Cl                -1.01890830    1.76480095    0.00000000

 1 2 1.0 3 1.0 4 1.0 5 1.0 6 1.0
 2
 3
 4
 5
 6

