%chk=68.chk
%nproc=32
#p freq bv5lyp/6-31G(d) iop(3/76=1000002000) iop(3/77=0720008000) iop(3/78=0810010000)

G3 HOF calculation for No.68

0 1
 S                  0.00000000    0.00000000    0.00000000
 O                  0.67789477   -1.27672725    0.00000000
 O                  0.67789477    1.27672725    0.00000000
 Cl                -1.30833684   -0.00000000    1.57192854
 Cl                -1.30833684   -0.00000000   -1.57192854

 1 2 2.0 3 2.0 4 1.0 5 1.0
 2
 3
 4
 5

