%chk=69.chk
%nproc=32
#p freq bv5lyp/6-31G(d) iop(3/76=1000002000) iop(3/77=0720008000) iop(3/78=0810010000)

G3 HOF calculation for No.69

0 1
 P                  0.00000000    0.00000000    0.00000000
 Cl                 1.83088551    0.00000000   -0.93148744
 Cl                -0.91544276   -1.58559337   -0.93148744
 Cl                -0.91544276    1.58559337   -0.93148744

 1 2 1.0 3 1.0 4 1.0
 2
 3
 4

