%chk=70.chk
%nproc=32
#p freq bv5lyp/6-31G(d) iop(3/76=1000002000) iop(3/77=0720008000) iop(3/78=0810010000)

G3 HOF calculation for No.70

 0,1
  S                                                 0.000000000000      0.000000000000      0.000000000000
  S                                                 0.000000000000      0.000000000000      1.978080020000
  Cl                                                1.975955554098      0.000000000000     -0.622741988719
  Cl                                                0.142878620835      1.970783106148      2.600822008719

 1 2 1.000 3 1.000
 2 1 1.000 4 1.000
 3 1 1.000
 4 2 1.000
 
