%chk=72.chk
%nproc=32
#p freq bv5lyp/6-31G(d) iop(3/76=1000002000) iop(3/77=0720008000) iop(3/78=0810010000)

G3 HOF calculation for No.72

 0,1
  C                                                 0.000000000000      0.000000000000      0.000000000000
  Cl                                                0.000000000000      0.000000000000      1.749460140000
  F                                                 1.251295464727      0.000000000000     -0.464912820690
  F                                                -0.625647732363     -1.083653660093     -0.464912820690
  F                                                -0.625647732363      1.083653660093     -0.464912820690

 1 2 1.000 3 1.000 4 1.000 5 1.000
 2 1 1.000
 3 1 1.000
 4 1 1.000
 5 1 1.000
 
